source/tests/data/matpower/case24_ieee_rts_reliability.m
function mpc = case24_ieee_rts
%CASE24_IEEE_RTS  Power flow data for the IEEE RELIABILITY TEST SYSTEM.
%   Please see CASEFORMAT for details on the case file format.
%
%   This system data is from the IEEE RELIABILITY TEST SYSTEM, see
%
%   IEEE Reliability Test System Task Force of the Applications of
%   Probability Methods Subcommittee, "IEEE reliability test system,"
%   IEEE Transactions on Power Apparatus and Systems, Vol. 98, No. 6,
%   Nov./Dec. 1979, pp. 2047-2054.
%
%   IEEE Reliability Test System Task Force of Applications of
%   Probability Methods Subcommittee, "IEEE reliability test system-96,"
%   IEEE Transactions on Power Systems, Vol. 14, No. 3, Aug. 1999,
%   pp. 1010-1020.
%
%   Cost data is from Web site run by Georgia Tech Power Systems Control
%   and Automation Laboratory:
%
%       http://pscal.ece.gatech.edu/testsys/index.html
%
%   MATPOWER case file data provided by Bruce Wollenberg.

%   MATPOWER

%% MATPOWER Case Format : Version 2
mpc.version = '2';

%%-----  Power Flow Data  -----%%
%% system MVA base
mpc.baseMVA = 100;

%% bus data
%	bus_i	type	Pd	Qd	Gs	Bs	area	Vm	Va	baseKV	zone	Vmax	Vmin
mpc.bus = [
	1	2	108	22	0	0	1	1	0	138	1	1.05	0.95;
	2	2	97	20	0	0	1	1	0	138	1	1.05	0.95;
	3	1	180	37	0	0	1	1	0	138	1	1.05	0.95;
	4	1	74	15	0	0	1	1	0	138	1	1.05	0.95;
	5	1	71	14	0	0	1	1	0	138	1	1.05	0.95;
	6	1	136	28	0	-100	2	1	0	138	1	1.05	0.95;
	7	2	125	25	0	0	2	1	0	138	1	1.05	0.95;
	8	1	171	35	0	0	2	1	0	138	1	1.05	0.95;
	9	1	175	36	0	0	1	1	0	138	1	1.05	0.95;
	10	1	195	40	0	0	2	1	0	138	1	1.05	0.95;
	11	1	0	0	0	0	3	1	0	230	1	1.05	0.95;
	12	1	0	0	0	0	3	1	0	230	1	1.05	0.95;
	13	3	265	54	0	0	3	1	0	230	1	1.05	0.95;
	14	2	194	39	0	0	3	1	0	230	1	1.05	0.95;
	15	2	317	64	0	0	4	1	0	230	1	1.05	0.95;
	16	2	100	20	0	0	4	1	0	230	1	1.05	0.95;
	17	1	0	0	0	0	4	1	0	230	1	1.05	0.95;
	18	2	333	68	0	0	4	1	0	230	1	1.05	0.95;
	19	1	181	37	0	0	3	1	0	230	1	1.05	0.95;
	20	1	128	26	0	0	3	1	0	230	1	1.05	0.95;
	21	2	0	0	0	0	4	1	0	230	1	1.05	0.95;
	22	2	0	0	0	0	4	1	0	230	1	1.05	0.95;
	23	2	0	0	0	0	3	1	0	230	1	1.05	0.95;
	24	1	0	0	0	0	4	1	0	230	1	1.05	0.95;
];

%% generator data
%	bus	Pg	Qg	Qmax	Qmin	Vg	mBase	status	Pmax	Pmin	Pc1	Pc2	Qc1min	Qc1max	Qc2min	Qc2max	ramp_agc	ramp_10	ramp_30	ramp_q	apf	%	Unit Code  TYPE
mpc.gen = [
	1	10	0	10	0	1.035	100	1	20	16		0	0	0	0	0	0	0	0	0	0	0   2;	%	U20
	1	10	0	10	0	1.035	100	1	20	16		0	0	0	0	0	0	0	0	0	0	0   2;	%	U20
	1	76	0	30	-25	1.035	100	1	76	15.2	0	0	0	0	0	0	0	0	0	0	0   4;	%	U76
	1	76	0	30	-25	1.035	100	1	76	15.2	0	0	0	0	0	0	0	0	0	0	0   4;	%	U76
	2	10	0	10	0	1.035	100	1	20	16		0	0	0	0	0	0	0	0	0	0	0   2;	%	U20
	2	10	0	10	0	1.035	100	1	20	16		0	0	0	0	0	0	0	0	0	0	0   2;	%	U20
	2	76	0	30	-25	1.035	100	1	76	15.2	0	0	0	0	0	0	0	0	0	0	0   4;	%	U76
	2	76	0	30	-25	1.035	100	1	76	15.2	0	0	0	0	0	0	0	0	0	0	0   4;	%	U76
	7	80	0	60	0	1.025	100	1	100	25		0	0	0	0	0	0	0	0	0	0	0   5;	%	U100
	7	80	0	60	0	1.025	100	1	100	25		0	0	0	0	0	0	0	0	0	0	0   5;	%	U100
	7	80	0	60	0	1.025	100	1	100	25		0	0	0	0	0	0	0	0	0	0	0   5;	%	U100
	13 95.1	0	80	0	1.02	100	1	197	69		0	0	0	0	0	0	0	0	0	0	0   7;	%	U197
	13 95.1	0	80	0	1.02	100	1	197	69		0	0	0	0	0	0	0	0	0	0	0   7;	%	U197
	13 95.1	0	80	0	1.02	100	1	197	69		0	0	0	0	0	0	0	0	0	0	0   7;	%	U197
	14	0 35.3	200	-50	0.98	100	1	0	0		0	0	0	0	0	0	0	0	0	0	0   1;	%	SynCond
	15	12	0	6	0	1.014	100	1	12	2.4		0	0	0	0	0	0	0	0	0	0	0   1;	%	U12
	15	12	0	6	0	1.014	100	1	12	2.4		0	0	0	0	0	0	0	0	0	0	0   1;	%	U12
	15	12	0	6	0	1.014	100	1	12	2.4		0	0	0	0	0	0	0	0	0	0	0   1;	%	U12
	15	12	0	6	0	1.014	100	1	12	2.4		0	0	0	0	0	0	0	0	0	0	0   1;	%	U12
	15	12	0	6	0	1.014	100	1	12	2.4		0	0	0	0	0	0	0	0	0	0	0   1;	%	U12
	15	155	0	80	-50	1.014	100	1	155	54.3	0	0	0	0	0	0	0	0	0	0	0   6;	%	U155
	16	155	0	80	-50	1.017	100	1	155	54.3	0	0	0	0	0	0	0	0	0	0	0   6;	%	U155
	18	400	0	200	-50	1.05	100	1	400	100		0	0	0	0	0	0	0	0	0	0	0   9;	%	U400
	21	400	0	200	-50	1.05	100	1	400	100		0	0	0	0	0	0	0	0	0	0	0   9;	%	U400
	22	50	0	16	-10	1.05	100	1	50	10		0	0	0	0	0	0	0	0	0	0	0   3;	%	U50
	22	50	0	16	-10	1.05	100	1	50	10		0	0	0	0	0	0	0	0	0	0	0   3;	%	U50
	22	50	0	16	-10	1.05	100	1	50	10		0	0	0	0	0	0	0	0	0	0	0   3;	%	U50
	22	50	0	16	-10	1.05	100	1	50	10		0	0	0	0	0	0	0	0	0	0	0   3;	%	U50
	22	50	0	16	-10	1.05	100	1	50	10		0	0	0	0	0	0	0	0	0	0	0   3;	%	U50
	22	50	0	16	-10	1.05	100	1	50	10		0	0	0	0	0	0	0	0	0	0	0   3;	%	U50
	23	155	0	80	-50	1.05	100	1	155	54.3	0	0	0	0	0	0	0	0	0	0	0   6;	%	U155
	23	155	0	80	-50	1.05	100	1	155	54.3	0	0	0	0	0	0	0	0	0	0	0   6;	%	U155
	23	350	0	150	-25	1.05	100	1	350	140		0	0	0	0	0	0	0	0	0	0	0   8;	%	U350
];

%% branch data
%	fbus	tbus	r	x	b	rateA	rateB	rateC	ratio	angle	status	angmin	angmax 1/MTTF (1/yr)  MTTR (h)
mpc.branch = [
	1	2	0.0026	0.0139	0.4611	175	250	200	0		0	1	-360	360   .24000 16.000;
	1	3	0.0546	0.2112	0.0572	175	208	220	0		0	1	-360	360   .51000 10.000;
	1	5	0.0218	0.0845	0.0229	175	208	220	0		0	1	-360	360   .33000 10.000;
	2	4	0.0328	0.1267	0.0343	175	208	220	0		0	1	-360	360   .39000 10.000;
	2	6	0.0497	0.192	0.052	175	208	220	0		0	1	-360	360   .48000 10.000;
	3	9	0.0308	0.119	0.0322	175	208	220	0		0	1	-360	360   .38000 10.000;
	3	24	0.0023	0.0839	0       400	510	600	1.03	0	1	-360	360   .02000 768.00;
	4	9	0.0268	0.1037	0.0281	175	208	220	0		0	1	-360	360   .36000 10.000;
	5	10	0.0228	0.0883	0.0239	175	208	220	0		0	1	-360	360   .34000 10.000;
	6	10	0.0139	0.0605	2.459	175	193	200	0		0	1	-360	360   .33000 35.000;
	7	8	0.0159	0.0614	0.0166	175	208	220	0		0	1	-360	360   .30000 10.000;
	8	9	0.0427	0.1651	0.0447	175	208	220	0		0	1	-360	360   .44000 10.000;
	8	10	0.0427	0.1651	0.0447	175	208	220	0		0	1	-360	360   .44000 10.000;
	9	11	0.0023	0.0839	0		400	510	600	1.03	0	1	-360	360   .02000 768.00;
	9	12	0.0023	0.0839	0		400	510	600	1.03	0	1	-360	360   .02000 768.00;
	10	11	0.0023	0.0839	0		400	510	600	1.02	0	1	-360	360   .02000 768.00;
	10	12	0.0023	0.0839	0		400	510	600	1.02	0	1	-360	360   .02000 768.00;
	11	13	0.0061	0.0476	0.0999	500	600	625	0		0	1	-360	360   .40000 11.000;
	11	14	0.0054	0.0418	0.0879	500	625	625	0		0	1	-360	360   .39000 11.000;
	12	13	0.0061	0.0476	0.0999	500	625	625	0		0	1	-360	360   .40000 11.000;
	12	23	0.0124	0.0966	0.203	500	625	625	0		0	1	-360	360   .52000 11.000;
	13	23	0.0111	0.0865	0.1818	500	625	625	0		0	1	-360	360   .49000 11.000;
	14	16	0.005	0.0389	0.0818	500	625	625	0		0	1	-360	360   .38000 11.000;
	15	16	0.0022	0.0173	0.0364	500	600	625	0		0	1	-360	360   .33000 11.000;
	15	21	0.0063	0.049	0.103	500	600	625	0		0	1	-360	360   .41000 11.000;
	15	21	0.0063	0.049	0.103	500	600	625	0		0	1	-360	360   .41000 11.000;
	15	24	0.0067	0.0519	0.1091	500	600	625	0		0	1	-360	360   .41000 11.000;
	16	17	0.0033	0.0259	0.0545	500	600	625	0		0	1	-360	360   .35000 11.000;
	16	19	0.003	0.0231	0.0485	500	600	625	0		0	1	-360	360   .34000 11.000;
	17	18	0.0018	0.0144	0.0303	500	600	625	0		0	1	-360	360   .32000 11.000;
	17	22	0.0135	0.1053	0.2212	500	600	625	0		0	1	-360	360   .54000 11.000;
	18	21	0.0033	0.0259	0.0545	500	600	625	0		0	1	-360	360   .35000 11.000;
	18	21	0.0033	0.0259	0.0545	500	600	625	0		0	1	-360	360   .35000 11.000;
	19	20	0.0051	0.0396	0.0833	500	600	625	0		0	1	-360	360   .38000 11.000;
	19	20	0.0051	0.0396	0.0833	500	600	625	0		0	1	-360	360   .38000 11.000;
	20	23	0.0028	0.0216	0.0455	500	600	625	0		0	1	-360	360   .34000 11.000;
	20	23	0.0028	0.0216	0.0455	500	600	625	0		0	1	-360	360   .34000 11.000;
	21	22	0.0087	0.0678	0.1424	500	600	625	0		0	1	-360	360   .45000 11.000;
];

%%-----  OPF Data  -----%%
%% generator cost data
%type    cinv    cope  carbon    ramp    serie  FOR
%       ($/kW) ($/MWh)(ton/MWh) (%cap)
mpc.gencost = [
	1	3000      .9       	0     100       -1	0.02;  %  U12  Fossil Steam
	2	3000       5     	0     100       -1	0.10;  %  U20  Combus. Turbine
	3	3000      .1       	0     100       -1	0.01;  %  U50  Hydro
	4	3000      .8       	0     100        1	0.02;  %  U76  Fossil Steam
	5	3000      .8       	0     100        1	0.04;  %  U100 Fossil Steam
	6	3000      .8       	0     100        1	0.04;  %  U155 Fossil Steam
	7	3000      .7       	0     100        1	0.05;  %  U197 Fossil Steam
	8	3000      .7       	0     100        1	0.08;  %  U350 Fossil Steam
	9	3000      .7       	0     100        1	0.12;  %  U400 Nuclear
];

%% Co2tax
mpc.c02tax = [
    0;
];	% Carbon tax [$/ton]
